06_Joshua_Smith/gisPython/Mocksville_Main_Circuit_Opendss/MOCKS_01/Elements/Loads.dss
New Load.259149647_1 Bus1=259149647.1 Phases=1 kV=13.8564 XFKVA=100.0 PF=0.95 yearly=YearlyA daily=DailyA
New Load.259149647_2 Bus1=259149647.2 Phases=1 kV=13.8564 XFKVA=100.0 PF=0.95 yearly=YearlyB daily=DailyB
New Load.259149647_3 Bus1=259149647.3 Phases=1 kV=13.8564 XFKVA=100.0 PF=0.95 yearly=YearlyC daily=DailyC
New Load.260860136_1 Bus1=260860136.1 Phases=1 kV=13.8564 XFKVA=25.0 PF=0.95 yearly=YearlyA daily=DailyA
New Load.254399551_2 Bus1=254399551.2 Phases=1 kV=13.8564 XFKVA=25.0 PF=0.95 yearly=YearlyB daily=DailyB
New Load.254420503_3 Bus1=254420503.3 Phases=1 kV=13.8564 XFKVA=25.0 PF=0.95 yearly=YearlyC daily=DailyC
New Load.254421101_3 Bus1=254421101.3 Phases=1 kV=13.8564 XFKVA=25.0 PF=0.95 yearly=YearlyC daily=DailyC
New Load.254412747_3 Bus1=254412747.3 Phases=1 kV=13.8564 XFKVA=25.0 PF=0.95 yearly=YearlyC daily=DailyC
New Load.260110134_2 Bus1=260110134.2 Phases=1 kV=13.8564 XFKVA=167.0 PF=0.95 yearly=YearlyB daily=DailyB
New Load.254426600_3 Bus1=254426600.3 Phases=1 kV=13.8564 XFKVA=25.0 PF=0.95 yearly=YearlyC daily=DailyC
New Load.254420966_2 Bus1=254420966.2 Phases=1 kV=13.8564 XFKVA=25.0 PF=0.95 yearly=YearlyB daily=DailyB
New Load.254399481_3 Bus1=254399481.3 Phases=1 kV=13.8564 XFKVA=25.0 PF=0.95 yearly=YearlyC daily=DailyC
New Load.260112453_3 Bus1=260112453.3 Phases=1 kV=13.8564 XFKVA=100.0 PF=0.95 yearly=YearlyC daily=DailyC
New Load.254413389_1 Bus1=254413389.1 Phases=1 kV=13.8564 XFKVA=50.0 PF=0.95 yearly=YearlyA daily=DailyA
New Load.254420921_2 Bus1=254420921.2 Phases=1 kV=13.8564 XFKVA=25.0 PF=0.95 yearly=YearlyB daily=DailyB
New Load.254413205_1 Bus1=254413205.1 Phases=1 kV=13.8564 XFKVA=25.0 PF=0.95 yearly=YearlyA daily=DailyA
New Load.435572195_2 Bus1=435572195.2 Phases=1 kV=13.8564 XFKVA=25.0 PF=0.95 yearly=YearlyB daily=DailyB
New Load.254406028_2 Bus1=254406028.2 Phases=1 kV=13.8564 XFKVA=25.0 PF=0.95 yearly=YearlyB daily=DailyB
New Load.254421081_3 Bus1=254421081.3 Phases=1 kV=13.8564 XFKVA=10.0 PF=0.95 yearly=YearlyC daily=DailyC
New Load.254406088_2 Bus1=254406088.2 Phases=1 kV=13.8564 XFKVA=25.0 PF=0.95 yearly=YearlyB daily=DailyB
New Load.254421106_3 Bus1=254421106.3 Phases=1 kV=13.8564 XFKVA=25.0 PF=0.95 yearly=YearlyC daily=DailyC
New Load.254405858_3 Bus1=254405858.3 Phases=1 kV=13.8564 XFKVA=25.0 PF=0.95 yearly=YearlyC daily=DailyC
New Load.254420619_2 Bus1=254420619.2 Phases=1 kV=13.8564 XFKVA=25.0 PF=0.95 yearly=YearlyB daily=DailyB
New Load.254420619_3 Bus1=254420619.3 Phases=1 kV=13.8564 XFKVA=25.0 PF=0.95 yearly=YearlyC daily=DailyC
New Load.254406332_3 Bus1=254406332.3 Phases=1 kV=13.8564 XFKVA=25.0 PF=0.95 yearly=YearlyC daily=DailyC
New Load.254412143_1 Bus1=254412143.1 Phases=1 kV=13.8564 XFKVA=25.0 PF=0.95 yearly=YearlyA daily=DailyA
New Load.254405943_2 Bus1=254405943.2 Phases=1 kV=13.8564 XFKVA=25.0 PF=0.95 yearly=YearlyB daily=DailyB
New Load.254413379_3 Bus1=254413379.3 Phases=1 kV=13.8564 XFKVA=25.0 PF=0.95 yearly=YearlyC daily=DailyC
New Load.254412617_2 Bus1=254412617.2 Phases=1 kV=13.8564 XFKVA=25.0 PF=0.95 yearly=YearlyB daily=DailyB
New Load.616213606_2 Bus1=616213606.2 Phases=1 kV=13.8564 XFKVA=25.0 PF=0.95 yearly=YearlyB daily=DailyB
New Load.254421183_3 Bus1=254421183.3 Phases=1 kV=13.8564 XFKVA=25.0 PF=0.95 yearly=YearlyC daily=DailyC
New Load.254405549_2 Bus1=254405549.2 Phases=1 kV=13.8564 XFKVA=50.0 PF=0.95 yearly=YearlyB daily=DailyB
New Load.254427347_1 Bus1=254427347.1 Phases=1 kV=13.8564 XFKVA=50.0 PF=0.95 yearly=YearlyA daily=DailyA
New Load.254412492_1 Bus1=254412492.1 Phases=1 kV=13.8564 XFKVA=25.0 PF=0.95 yearly=YearlyA daily=DailyA
New Load.254406496_1 Bus1=254406496.1 Phases=1 kV=13.8564 XFKVA=15.0 PF=0.95 yearly=YearlyA daily=DailyA
New Load.254406496_2 Bus1=254406496.2 Phases=1 kV=13.8564 XFKVA=15.0 PF=0.95 yearly=YearlyB daily=DailyB
New Load.254406496_3 Bus1=254406496.3 Phases=1 kV=13.8564 XFKVA=15.0 PF=0.95 yearly=YearlyC daily=DailyC
New Load.254412410_1 Bus1=254412410.1 Phases=1 kV=13.8564 XFKVA=25.0 PF=0.95 yearly=YearlyA daily=DailyA
New Load.260111228_3 Bus1=260111228.3 Phases=1 kV=13.8564 XFKVA=50.0 PF=0.95 yearly=YearlyC daily=DailyC
New Load.254413130_2 Bus1=254413130.2 Phases=1 kV=13.8564 XFKVA=10.0 PF=0.95 yearly=YearlyB daily=DailyB
New Load.254406018_2 Bus1=254406018.2 Phases=1 kV=13.8564 XFKVA=25.0 PF=0.95 yearly=YearlyB daily=DailyB
New Load.260111253_3 Bus1=260111253.3 Phases=1 kV=13.8564 XFKVA=50.0 PF=0.95 yearly=YearlyC daily=DailyC
New Load.254405808_1 Bus1=254405808.1 Phases=1 kV=13.8564 XFKVA=25.0 PF=0.95 yearly=YearlyA daily=DailyA
New Load.254412627_2 Bus1=254412627.2 Phases=1 kV=13.8564 XFKVA=25.0 PF=0.95 yearly=YearlyB daily=DailyB
New Load.254420891_2 Bus1=254420891.2 Phases=1 kV=13.8564 XFKVA=25.0 PF=0.95 yearly=YearlyB daily=DailyB
New Load.254412602_2 Bus1=254412602.2 Phases=1 kV=13.8564 XFKVA=25.0 PF=0.95 yearly=YearlyB daily=DailyB
New Load.254426705_1 Bus1=254426705.1 Phases=1 kV=13.8564 XFKVA=25.0 PF=0.95 yearly=YearlyA daily=DailyA
New Load.254426940_1 Bus1=254426940.1 Phases=1 kV=13.8564 XFKVA=25.0 PF=0.95 yearly=YearlyA daily=DailyA
New Load.260112478_3 Bus1=260112478.3 Phases=1 kV=13.8564 XFKVA=75.0 PF=0.95 yearly=YearlyC daily=DailyC
New Load.261177709_2 Bus1=261177709.2 Phases=1 kV=13.8564 XFKVA=75.0 PF=0.95 yearly=YearlyB daily=DailyB
New Load.254406626_3 Bus1=254406626.3 Phases=1 kV=13.8564 XFKVA=25.0 PF=0.95 yearly=YearlyC daily=DailyC
New Load.254426920_1 Bus1=254426920.1 Phases=1 kV=13.8564 XFKVA=25.0 PF=0.95 yearly=YearlyA daily=DailyA
New Load.254420756_2 Bus1=254420756.2 Phases=1 kV=13.8564 XFKVA=25.0 PF=0.95 yearly=YearlyB daily=DailyB
New Load.260110219_2 Bus1=260110219.2 Phases=1 kV=13.8564 XFKVA=75.0 PF=0.95 yearly=YearlyB daily=DailyB
New Load.260937588_2 Bus1=260937588.2 Phases=1 kV=13.8564 XFKVA=50.0 PF=0.95 yearly=YearlyB daily=DailyB
New Load.261177678_2 Bus1=261177678.2 Phases=1 kV=13.8564 XFKVA=75.0 PF=0.95 yearly=YearlyB daily=DailyB
New Load.254406698_1 Bus1=254406698.1 Phases=1 kV=13.8564 XFKVA=25.0 PF=0.95 yearly=YearlyA daily=DailyA
New Load.254406698_2 Bus1=254406698.2 Phases=1 kV=13.8564 XFKVA=25.0 PF=0.95 yearly=YearlyB daily=DailyB
New Load.254406698_3 Bus1=254406698.3 Phases=1 kV=13.8564 XFKVA=25.0 PF=0.95 yearly=YearlyC daily=DailyC
New Load.254426835_1 Bus1=254426835.1 Phases=1 kV=13.8564 XFKVA=25.0 PF=0.95 yearly=YearlyA daily=DailyA
New Load.254412592_2 Bus1=254412592.2 Phases=1 kV=13.8564 XFKVA=25.0 PF=0.95 yearly=YearlyB daily=DailyB
New Load.254427280_2 Bus1=254427280.2 Phases=1 kV=13.8564 XFKVA=25.0 PF=0.95 yearly=YearlyB daily=DailyB
New Load.260944692_3 Bus1=260944692.3 Phases=1 kV=13.8564 XFKVA=75.0 PF=0.95 yearly=YearlyC daily=DailyC
New Load.254420836_2 Bus1=254420836.2 Phases=1 kV=13.8564 XFKVA=25.0 PF=0.95 yearly=YearlyB daily=DailyB
New Load.254399566_3 Bus1=254399566.3 Phases=1 kV=13.8564 XFKVA=50.0 PF=0.95 yearly=YearlyC daily=DailyC
New Load.254427342_1 Bus1=254427342.1 Phases=1 kV=13.8564 XFKVA=25.0 PF=0.95 yearly=YearlyA daily=DailyA
New Load.254412537_2 Bus1=254412537.2 Phases=1 kV=13.8564 XFKVA=25.0 PF=0.95 yearly=YearlyB daily=DailyB
New Load.261303870_1 Bus1=261303870.1 Phases=1 kV=13.8564 XFKVA=75.0 PF=0.95 yearly=YearlyA daily=DailyA
New Load.254412717_2 Bus1=254412717.2 Phases=1 kV=13.8564 XFKVA=25.0 PF=0.95 yearly=YearlyB daily=DailyB
New Load.254420409_1 Bus1=254420409.1 Phases=1 kV=13.8564 XFKVA=25.0 PF=0.95 yearly=YearlyA daily=DailyA
New Load.259222600_1 Bus1=259222600.1 Phases=1 kV=13.8564 XFKVA=25.0 PF=0.95 yearly=YearlyA daily=DailyA
New Load.259414671_1 Bus1=259414671.1 Phases=1 kV=13.8564 XFKVA=75.0 PF=0.95 yearly=YearlyA daily=DailyA
New Load.254420047_2 Bus1=254420047.2 Phases=1 kV=13.8564 XFKVA=10.0 PF=0.95 yearly=YearlyB daily=DailyB
New Load.260893638_2 Bus1=260893638.2 Phases=1 kV=13.8564 XFKVA=75.0 PF=0.95 yearly=YearlyB daily=DailyB
New Load.260110139_2 Bus1=260110139.2 Phases=1 kV=13.8564 XFKVA=167.0 PF=0.95 yearly=YearlyB daily=DailyB
New Load.254412168_1 Bus1=254412168.1 Phases=1 kV=13.8564 XFKVA=25.0 PF=0.95 yearly=YearlyA daily=DailyA
New Load.254426659_3 Bus1=254426659.3 Phases=1 kV=13.8564 XFKVA=25.0 PF=0.95 yearly=YearlyC daily=DailyC
New Load.254405968_2 Bus1=254405968.2 Phases=1 kV=13.8564 XFKVA=25.0 PF=0.95 yearly=YearlyB daily=DailyB
New Load.260112398_2 Bus1=260112398.2 Phases=1 kV=13.8564 XFKVA=25.0 PF=0.95 yearly=YearlyB daily=DailyB
New Load.254427312_3 Bus1=254427312.3 Phases=1 kV=13.8564 XFKVA=25.0 PF=0.95 yearly=YearlyC daily=DailyC
New Load.261192806_2 Bus1=261192806.2 Phases=1 kV=13.8564 XFKVA=25.0 PF=0.95 yearly=YearlyB daily=DailyB
New Load.254413150_1 Bus1=254413150.1 Phases=1 kV=13.8564 XFKVA=25.0 PF=0.95 yearly=YearlyA daily=DailyA
New Load.261013830_1 Bus1=261013830.1 Phases=1 kV=13.8564 XFKVA=50.0 PF=0.95 yearly=YearlyA daily=DailyA
New Load.254412397_2 Bus1=254412397.2 Phases=1 kV=13.8564 XFKVA=50.0 PF=0.95 yearly=YearlyB daily=DailyB
New Load.260112468_3 Bus1=260112468.3 Phases=1 kV=13.8564 XFKVA=100.0 PF=0.95 yearly=YearlyC daily=DailyC
New Load.254420614_2 Bus1=254420614.2 Phases=1 kV=13.8564 XFKVA=15.0 PF=0.95 yearly=YearlyB daily=DailyB
New Load.254412919_3 Bus1=254412919.3 Phases=1 kV=13.8564 XFKVA=15.0 PF=0.95 yearly=YearlyC daily=DailyC
New Load.254426660_3 Bus1=254426660.3 Phases=1 kV=13.8564 XFKVA=25.0 PF=0.95 yearly=YearlyC daily=DailyC
New Load.259547598_2 Bus1=259547598.2 Phases=1 kV=13.8564 XFKVA=25.0 PF=0.95 yearly=YearlyB daily=DailyB
New Load.254413033_3 Bus1=254413033.3 Phases=1 kV=13.8564 XFKVA=10.0 PF=0.95 yearly=YearlyC daily=DailyC
New Load.254406003_2 Bus1=254406003.2 Phases=1 kV=13.8564 XFKVA=25.0 PF=0.95 yearly=YearlyB daily=DailyB
New Load.435571456_1 Bus1=435571456.1 Phases=1 kV=13.8564 XFKVA=25.0 PF=0.95 yearly=YearlyA daily=DailyA
New Load.254421050_3 Bus1=254421050.3 Phases=1 kV=13.8564 XFKVA=10.0 PF=0.95 yearly=YearlyC daily=DailyC
New Load.260110159_2 Bus1=260110159.2 Phases=1 kV=13.8564 XFKVA=25.0 PF=0.95 yearly=YearlyB daily=DailyB
New Load.254420666_2 Bus1=254420666.2 Phases=1 kV=13.8564 XFKVA=25.0 PF=0.95 yearly=YearlyB daily=DailyB
New Load.254406307_3 Bus1=254406307.3 Phases=1 kV=13.8564 XFKVA=50.0 PF=0.95 yearly=YearlyC daily=DailyC
New Load.261177694_2 Bus1=261177694.2 Phases=1 kV=13.8564 XFKVA=75.0 PF=0.95 yearly=YearlyB daily=DailyB
New Load.261059305_2 Bus1=261059305.2 Phases=1 kV=13.8564 XFKVA=25.0 PF=0.95 yearly=YearlyB daily=DailyB
New Load.261303895_2 Bus1=261303895.2 Phases=1 kV=13.8564 XFKVA=75.0 PF=0.95 yearly=YearlyB daily=DailyB
New Load.254405544_3 Bus1=254405544.3 Phases=1 kV=13.8564 XFKVA=25.0 PF=0.95 yearly=YearlyC daily=DailyC
New Load.254406038_2 Bus1=254406038.2 Phases=1 kV=13.8564 XFKVA=25.0 PF=0.95 yearly=YearlyB daily=DailyB
New Load.435572943_1 Bus1=435572943.1 Phases=1 kV=13.8564 XFKVA=50.0 PF=0.95 yearly=YearlyA daily=DailyA
New Load.254399540_1 Bus1=254399540.1 Phases=1 kV=13.8564 XFKVA=25.0 PF=0.95 yearly=YearlyA daily=DailyA
New Load.261072116_1 Bus1=261072116.1 Phases=1 kV=13.8564 XFKVA=50.0 PF=0.95 yearly=YearlyA daily=DailyA
New Load.254406450_2 Bus1=254406450.2 Phases=1 kV=13.8564 XFKVA=15.0 PF=0.95 yearly=YearlyB daily=DailyB
New Load.254412652_2 Bus1=254412652.2 Phases=1 kV=13.8564 XFKVA=25.0 PF=0.95 yearly=YearlyB daily=DailyB
New Load.260113648_3 Bus1=260113648.3 Phases=1 kV=13.8564 XFKVA=25.0 PF=0.95 yearly=YearlyC daily=DailyC
New Load.254412452_1 Bus1=254412452.1 Phases=1 kV=13.8564 XFKVA=25.0 PF=0.95 yearly=YearlyA daily=DailyA
New Load.261072157_3 Bus1=261072157.3 Phases=1 kV=13.8564 XFKVA=100.0 PF=0.95 yearly=YearlyC daily=DailyC
New Load.254420528_3 Bus1=254420528.3 Phases=1 kV=13.8564 XFKVA=25.0 PF=0.95 yearly=YearlyC daily=DailyC
New Load.254405768_1 Bus1=254405768.1 Phases=1 kV=13.8564 XFKVA=25.0 PF=0.95 yearly=YearlyA daily=DailyA
New Load.254420414_1 Bus1=254420414.1 Phases=1 kV=13.8564 XFKVA=25.0 PF=0.95 yearly=YearlyA daily=DailyA
New Load.254426865_1 Bus1=254426865.1 Phases=1 kV=13.8564 XFKVA=15.0 PF=0.95 yearly=YearlyA daily=DailyA
New Load.254413008_2 Bus1=254413008.2 Phases=1 kV=13.8564 XFKVA=25.0 PF=0.95 yearly=YearlyB daily=DailyB
New Load.254412754_1 Bus1=254412754.1 Phases=1 kV=13.8564 XFKVA=25.0 PF=0.95 yearly=YearlyA daily=DailyA
New Load.260113768_1 Bus1=260113768.1 Phases=1 kV=13.8564 XFKVA=100.0 PF=0.95 yearly=YearlyA daily=DailyA
New Load.260113768_2 Bus1=260113768.2 Phases=1 kV=13.8564 XFKVA=100.0 PF=0.95 yearly=YearlyB daily=DailyB
New Load.260113768_3 Bus1=260113768.3 Phases=1 kV=13.8564 XFKVA=100.0 PF=0.95 yearly=YearlyC daily=DailyC
New Load.254420272_1 Bus1=254420272.1 Phases=1 kV=13.8564 XFKVA=10.0 PF=0.95 yearly=YearlyA daily=DailyA
New Load.254420092_1 Bus1=254420092.1 Phases=1 kV=13.8564 XFKVA=15.0 PF=0.95 yearly=YearlyA daily=DailyA
New Load.254405693_3 Bus1=254405693.3 Phases=1 kV=13.8564 XFKVA=25.0 PF=0.95 yearly=YearlyC daily=DailyC
New Load.254420651_2 Bus1=254420651.2 Phases=1 kV=13.8564 XFKVA=25.0 PF=0.95 yearly=YearlyB daily=DailyB
New Load.254406631_2 Bus1=254406631.2 Phases=1 kV=13.8564 XFKVA=25.0 PF=0.95 yearly=YearlyB daily=DailyB
New Load.254412188_1 Bus1=254412188.1 Phases=1 kV=13.8564 XFKVA=25.0 PF=0.95 yearly=YearlyA daily=DailyA
New Load.260864302_3 Bus1=260864302.3 Phases=1 kV=13.8564 XFKVA=25.0 PF=0.95 yearly=YearlyC daily=DailyC
New Load.254405888_2 Bus1=254405888.2 Phases=1 kV=13.8564 XFKVA=50.0 PF=0.95 yearly=YearlyB daily=DailyB
New Load.699926464_2 Bus1=699926464.2 Phases=1 kV=13.8564 XFKVA=25.0 PF=0.95 yearly=YearlyB daily=DailyB
New Load.254421171_2 Bus1=254421171.2 Phases=1 kV=13.8564 XFKVA=25.0 PF=0.95 yearly=YearlyB daily=DailyB
New Load.260871301_1 Bus1=260871301.1 Phases=1 kV=13.8564 XFKVA=25.0 PF=0.95 yearly=YearlyA daily=DailyA
New Load.260871301_2 Bus1=260871301.2 Phases=1 kV=13.8564 XFKVA=25.0 PF=0.95 yearly=YearlyB daily=DailyB
New Load.260871301_3 Bus1=260871301.3 Phases=1 kV=13.8564 XFKVA=25.0 PF=0.95 yearly=YearlyC daily=DailyC
New Load.260111258_3 Bus1=260111258.3 Phases=1 kV=13.8564 XFKVA=25.0 PF=0.95 yearly=YearlyC daily=DailyC
New Load.254413028_3 Bus1=254413028.3 Phases=1 kV=13.8564 XFKVA=25.0 PF=0.95 yearly=YearlyC daily=DailyC
New Load.254412288_2 Bus1=254412288.2 Phases=1 kV=13.8564 XFKVA=25.0 PF=0.95 yearly=YearlyB daily=DailyB
New Load.254406230_3 Bus1=254406230.3 Phases=1 kV=13.8564 XFKVA=25.0 PF=0.95 yearly=YearlyC daily=DailyC
New Load.254426915_1 Bus1=254426915.1 Phases=1 kV=13.8564 XFKVA=25.0 PF=0.95 yearly=YearlyA daily=DailyA
New Load.254412482_1 Bus1=254412482.1 Phases=1 kV=13.8564 XFKVA=25.0 PF=0.95 yearly=YearlyA daily=DailyA
New Load.254412442_1 Bus1=254412442.1 Phases=1 kV=13.8564 XFKVA=25.0 PF=0.95 yearly=YearlyA daily=DailyA
New Load.254405838_1 Bus1=254405838.1 Phases=1 kV=13.8564 XFKVA=50.0 PF=0.95 yearly=YearlyA daily=DailyA
New Load.254412774_1 Bus1=254412774.1 Phases=1 kV=13.8564 XFKVA=25.0 PF=0.95 yearly=YearlyA daily=DailyA
New Load.254405963_2 Bus1=254405963.2 Phases=1 kV=13.8564 XFKVA=25.0 PF=0.95 yearly=YearlyB daily=DailyB
New Load.254421249_1 Bus1=254421249.1 Phases=1 kV=13.8564 XFKVA=50.0 PF=0.95 yearly=YearlyA daily=DailyA
New Load.260113708_3 Bus1=260113708.3 Phases=1 kV=13.8564 XFKVA=25.0 PF=0.95 yearly=YearlyC daily=DailyC
New Load.254405883_2 Bus1=254405883.2 Phases=1 kV=13.8564 XFKVA=50.0 PF=0.95 yearly=YearlyB daily=DailyB
New Load.254420876_3 Bus1=254420876.3 Phases=1 kV=13.8564 XFKVA=25.0 PF=0.95 yearly=YearlyC daily=DailyC
New Load.254420010_1 Bus1=254420010.1 Phases=1 kV=13.8564 XFKVA=25.0 PF=0.95 yearly=YearlyA daily=DailyA
New Load.254420167_1 Bus1=254420167.1 Phases=1 kV=13.8564 XFKVA=25.0 PF=0.95 yearly=YearlyA daily=DailyA
New Load.260113753_1 Bus1=260113753.1 Phases=1 kV=13.8564 XFKVA=50.0 PF=0.95 yearly=YearlyA daily=DailyA
New Load.260113753_2 Bus1=260113753.2 Phases=1 kV=13.8564 XFKVA=50.0 PF=0.95 yearly=YearlyB daily=DailyB
New Load.260113753_3 Bus1=260113753.3 Phases=1 kV=13.8564 XFKVA=50.0 PF=0.95 yearly=YearlyC daily=DailyC
New Load.254420911_2 Bus1=254420911.2 Phases=1 kV=13.8564 XFKVA=25.0 PF=0.95 yearly=YearlyB daily=DailyB
New Load.254420761_2 Bus1=254420761.2 Phases=1 kV=13.8564 XFKVA=25.0 PF=0.95 yearly=YearlyB daily=DailyB
New Load.260979245_2 Bus1=260979245.2 Phases=1 kV=13.8564 XFKVA=25.0 PF=0.95 yearly=YearlyB daily=DailyB
New Load.254427442_3 Bus1=254427442.3 Phases=1 kV=13.8564 XFKVA=25.0 PF=0.95 yearly=YearlyC daily=DailyC
New Load.254420429_1 Bus1=254420429.1 Phases=1 kV=13.8564 XFKVA=50.0 PF=0.95 yearly=YearlyA daily=DailyA
New Load.435572108_2 Bus1=435572108.2 Phases=1 kV=13.8564 XFKVA=25.0 PF=0.95 yearly=YearlyB daily=DailyB
New Load.254413419_1 Bus1=254413419.1 Phases=1 kV=13.8564 XFKVA=25.0 PF=0.95 yearly=YearlyA daily=DailyA
New Load.260112408_2 Bus1=260112408.2 Phases=1 kV=13.8564 XFKVA=25.0 PF=0.95 yearly=YearlyB daily=DailyB
New Load.254412968_1 Bus1=254412968.1 Phases=1 kV=13.8564 XFKVA=25.0 PF=0.95 yearly=YearlyA daily=DailyA
New Load.254412968_2 Bus1=254412968.2 Phases=1 kV=13.8564 XFKVA=25.0 PF=0.95 yearly=YearlyB daily=DailyB
New Load.254412968_3 Bus1=254412968.3 Phases=1 kV=13.8564 XFKVA=25.0 PF=0.95 yearly=YearlyC daily=DailyC
New Load.254426760_1 Bus1=254426760.1 Phases=1 kV=13.8564 XFKVA=25.0 PF=0.95 yearly=YearlyA daily=DailyA
New Load.260862018_2 Bus1=260862018.2 Phases=1 kV=13.8564 XFKVA=50.0 PF=0.95 yearly=YearlyB daily=DailyB
New Load.260111238_3 Bus1=260111238.3 Phases=1 kV=13.8564 XFKVA=25.0 PF=0.95 yearly=YearlyC daily=DailyC
New Load.254412233_2 Bus1=254412233.2 Phases=1 kV=13.8564 XFKVA=25.0 PF=0.95 yearly=YearlyB daily=DailyB
New Load.259248782_1 Bus1=259248782.1 Phases=1 kV=13.8564 XFKVA=75.0 PF=0.95 yearly=YearlyA daily=DailyA
New Load.259248782_2 Bus1=259248782.2 Phases=1 kV=13.8564 XFKVA=75.0 PF=0.95 yearly=YearlyB daily=DailyB
New Load.259248782_3 Bus1=259248782.3 Phases=1 kV=13.8564 XFKVA=75.0 PF=0.95 yearly=YearlyC daily=DailyC
New Load.254406063_2 Bus1=254406063.2 Phases=1 kV=13.8564 XFKVA=25.0 PF=0.95 yearly=YearlyB daily=DailyB
New Load.254420675_2 Bus1=254420675.2 Phases=1 kV=13.8564 XFKVA=25.0 PF=0.95 yearly=YearlyB daily=DailyB
New Load.260113733_3 Bus1=260113733.3 Phases=1 kV=13.8564 XFKVA=25.0 PF=0.95 yearly=YearlyC daily=DailyC
New Load.261103821_1 Bus1=261103821.1 Phases=1 kV=13.8564 XFKVA=25.0 PF=0.95 yearly=YearlyA daily=DailyA
New Load.254412732_1 Bus1=254412732.1 Phases=1 kV=13.8564 XFKVA=50.0 PF=0.95 yearly=YearlyA daily=DailyA
New Load.259131190_1 Bus1=259131190.1 Phases=1 kV=13.8564 XFKVA=25.0 PF=0.95 yearly=YearlyA daily=DailyA
New Load.259131190_2 Bus1=259131190.2 Phases=1 kV=13.8564 XFKVA=25.0 PF=0.95 yearly=YearlyB daily=DailyB
New Load.259131190_3 Bus1=259131190.3 Phases=1 kV=13.8564 XFKVA=25.0 PF=0.95 yearly=YearlyC daily=DailyC
New Load.254405998_2 Bus1=254405998.2 Phases=1 kV=13.8564 XFKVA=10.0 PF=0.95 yearly=YearlyB daily=DailyB
New Load.261013805_1 Bus1=261013805.1 Phases=1 kV=13.8564 XFKVA=75.0 PF=0.95 yearly=YearlyA daily=DailyA
New Load.254412682_3 Bus1=254412682.3 Phases=1 kV=13.8564 XFKVA=10.0 PF=0.95 yearly=YearlyC daily=DailyC
New Load.254427175_3 Bus1=254427175.3 Phases=1 kV=13.8564 XFKVA=25.0 PF=0.95 yearly=YearlyC daily=DailyC
New Load.254426730_1 Bus1=254426730.1 Phases=1 kV=13.8564 XFKVA=25.0 PF=0.95 yearly=YearlyA daily=DailyA
New Load.435571706_2 Bus1=435571706.2 Phases=1 kV=13.8564 XFKVA=10.0 PF=0.95 yearly=YearlyB daily=DailyB
New Load.254426645_3 Bus1=254426645.3 Phases=1 kV=13.8564 XFKVA=25.0 PF=0.95 yearly=YearlyC daily=DailyC
New Load.254420212_1 Bus1=254420212.1 Phases=1 kV=13.8564 XFKVA=25.0 PF=0.95 yearly=YearlyA daily=DailyA
New Load.254412522_2 Bus1=254412522.2 Phases=1 kV=13.8564 XFKVA=25.0 PF=0.95 yearly=YearlyB daily=DailyB
New Load.260113582_1 Bus1=260113582.1 Phases=1 kV=13.8564 XFKVA=50.0 PF=0.95 yearly=YearlyA daily=DailyA
New Load.254405509_3 Bus1=254405509.3 Phases=1 kV=13.8564 XFKVA=25.0 PF=0.95 yearly=YearlyC daily=DailyC
New Load.254426610_3 Bus1=254426610.3 Phases=1 kV=13.8564 XFKVA=25.0 PF=0.95 yearly=YearlyC daily=DailyC
New Load.259368732_1 Bus1=259368732.1 Phases=1 kV=13.8564 XFKVA=15.0 PF=0.95 yearly=YearlyA daily=DailyA
New Load.254412178_2 Bus1=254412178.2 Phases=1 kV=13.8564 XFKVA=25.0 PF=0.95 yearly=YearlyB daily=DailyB
New Load.254421001_3 Bus1=254421001.3 Phases=1 kV=13.8564 XFKVA=25.0 PF=0.95 yearly=YearlyC daily=DailyC
New Load.261041358_2 Bus1=261041358.2 Phases=1 kV=13.8564 XFKVA=75.0 PF=0.95 yearly=YearlyB daily=DailyB
New Load.254405611_3 Bus1=254405611.3 Phases=1 kV=13.8564 XFKVA=25.0 PF=0.95 yearly=YearlyC daily=DailyC
New Load.254413180_1 Bus1=254413180.1 Phases=1 kV=13.8564 XFKVA=25.0 PF=0.95 yearly=YearlyA daily=DailyA
New Load.254406683_3 Bus1=254406683.3 Phases=1 kV=13.8564 XFKVA=25.0 PF=0.95 yearly=YearlyC daily=DailyC
New Load.472630180_2 Bus1=472630180.2 Phases=1 kV=13.8564 XFKVA=50.0 PF=0.95 yearly=YearlyB daily=DailyB
New Load.254420951_2 Bus1=254420951.2 Phases=1 kV=13.8564 XFKVA=10.0 PF=0.95 yearly=YearlyB daily=DailyB
New Load.260113637_3 Bus1=260113637.3 Phases=1 kV=13.8564 XFKVA=50.0 PF=0.95 yearly=YearlyC daily=DailyC
New Load.254412441_1 Bus1=254412441.1 Phases=1 kV=13.8564 XFKVA=25.0 PF=0.95 yearly=YearlyA daily=DailyA
New Load.254420751_2 Bus1=254420751.2 Phases=1 kV=13.8564 XFKVA=25.0 PF=0.95 yearly=YearlyB daily=DailyB
...
